LAMMPS (10 Aug 2015)
#Simulación de la fundición del LiF y cálculo del coeficiente de difusión tal y como se indica en el paper de Madden. Coeficientes del paper de Ribeiro.

####################
# PROBLEM SETUP
####################

units          electron
dimension      3
boundary       p p p
timestep       1.0
atom_style     charge
neigh_modify   delay 0 every 1
kspace_style   ewald 0.0001

##################
# VARIABLES
#################

# Defino las variables convert y dt. La primera de ellas para obtener los resultados de coeficiente de difusión en m²/s; la segunda es el timestep.

variable    convert equal 2.8*1.0e-6
variable    dt equal 1.0

##########################
# GEOMETRÍA DEL SISTEMA
##########################

# Iones Li+ (1)
lattice         fcc 15.25 origin 0 0 0 # La lattice constant del LiF es igual a  403.51 pm=7.63 bohr =>El doble será la distancia entre Litios.
Lattice spacing in x,y,z = 15.25 15.25 15.25
region          box block 0 4 0 4 0 4
create_box      2 box # Crea la caja de simulación. El tamaño es el especificado en los argumentos del comando region.
Created orthogonal box = (0 0 0) to (61 61 61)
create_atoms    1 box
Created 256 atoms
# Iones F- (2)
lattice         fcc 15.25 origin 0.5 0 0
Lattice spacing in x,y,z = 15.25 15.25 15.25
create_atoms    2 box
Created 256 atoms
# Otros datos (Li:1, F:2)
mass            1 6.9417
mass            2 18.9984
set             type 1 charge 1
  256 settings made for charge
set             type 2 charge -1
  256 settings made for charge
group           1 id 1
1 atoms in group 1
group           2 id 2
1 atoms in group 2

###########################################
# POTENCIAL DE INTERACCIÓN Y COEFICIENTES
##########################################

pair_style      born/coul/long 15 #el cut-off se ha estimado teniendo en cuenta la curva de la función de distribución radial para LiF.

#Coeficientes.

#El orden de los coeficientes es: A rho sigma C D
pair_coeff      1 1 3.6358 0.56598 0  0.0764091 -0.1122
pair_coeff      2 2 15.4539 0.56598 0  15.17715 0
pair_coeff      1 2 8.4162 0.56598 0  0.8373600 0

###########################
# VELOCIDAD INICIAL
##########################
velocity    all create 800 97287 #The create style generates an ensemble of velocities using a random number generator with the specified seed as the specified temperature.

###############################
#EQUILIBRADO NPT (25 ps)
###############################
fix     npt all npt temp 800 1123 10 iso 0 0 100
run     25000
Ewald initialization ...
  G vector (1/distance) = 0.173528
  estimated absolute RMS force accuracy = 3.40048e-05
  estimated relative force accuracy = 0.000121433
  KSpace vectors: actual max1d max3d = 1535 9 3429
                  kxmax kymax kzmax  = 9 9 9
  1 neighbor list requests
  update every 1 steps, delay 0 steps, check yes
Step Temp E_pair E_mol TotEng Press Volume
0          800   -58.685305            0   -56.743414 -2.3675543e+09       226981
Loop time of 54.3803 on 4 procs for 25000 steps with 512 atoms

Pair  time (%) = 22.0027 (40.4608)
Kspce time (%) = 24.8057 (45.6152)
Neigh time (%) = 1.07804 (1.98241)
Comm  time (%) = 5.11463 (9.40531)
Outpt time (%) = 2.55704e-05 (4.70214e-05)
Other time (%) = 1.37924 (2.53628)

unfix   npt
#############################
# EQUILIBRADO NVT (25 ps)
#############################
fix     nvt all nvt temp 1123 1123 10
run     25000
Ewald initialization ...
  G vector (1/distance) = 0.18315
  estimated absolute RMS force accuracy = 3.33429e-05
  estimated relative force accuracy = 0.00011907
  KSpace vectors: actual max1d max3d = 462 6 1098
                  kxmax kymax kzmax  = 6 6 6
Step Temp E_pair E_mol TotEng Press
25000    1090.0456   -96.979664            0   -94.333726 2.1350896e+08
Loop time of 51.1521 on 4 procs for 25000 steps with 512 atoms

Pair  time (%) = 20.4417 (39.9625)
Kspce time (%) = 24.2681 (47.4429)
Neigh time (%) = 1.05021 (2.05312)
Comm  time (%) = 5.041 (9.85492)
Outpt time (%) = 2.563e-05 (5.01054e-05)
Other time (%) = 0.351142 (0.686466)

unfix   nvt

write_restart   restart.equilibration.dif
Ewald initialization ...
  G vector (1/distance) = 0.18315
  estimated absolute RMS force accuracy = 3.33429e-05
  estimated relative force accuracy = 0.00011907
  KSpace vectors: actual max1d max3d = 462 6 1098
                  kxmax kymax kzmax  = 6 6 6
reset_timestep  0

################################################################
# Cálculo de las posiciones y energía cinética y potencial de cada partícula.
###############################################################

fix             nve all nve

#compute         msd 1 msd com no
#fix             1 1 vector 10 c_msd[4]
compute         pe all pe/atom
compute         ke all ke/atom
dump            dumpy all custom 10000 dump.production id type x y z c_ke c_pe
thermo          10000
thermo_style    custom step temp etotal ke pe
run             2000000
Ewald initialization ...
  G vector (1/distance) = 0.18315
  estimated absolute RMS force accuracy = 3.33429e-05
  estimated relative force accuracy = 0.00011907
  KSpace vectors: actual max1d max3d = 462 6 1098
                  kxmax kymax kzmax  = 6 6 6
Step Temp TotEng KinEng PotEng
0     1128.791   -93.860038    2.7399866   -96.600024
Averages over the last 101 of 201 rows, steps 1000000 to 2000000:
Temp TotEng KinEng PotEng
1164.18 -93.8585 2.82589 -96.6844
Loop time of 3629.52 on 4 procs for 2000000 steps with 512 atoms

Pair  time (%) = 1521.68 (41.9253)
Kspce time (%) = 1691.76 (46.6113)
Neigh time (%) = 80.033 (2.20506)
Comm  time (%) = 318.007 (8.76169)
Outpt time (%) = 0.108746 (0.00299616)
Other time (%) = 17.9201 (0.493733)
